Version 4
SymbolType CELL
LINE Normal -20 -128 -20 -112
LINE Normal 20 -128 20 -112
LINE Normal -8 -100 8 -100
LINE Normal -104 -28 -64 -28
LINE Normal -64 -28 -64 -8
LINE Normal -64 36 -104 36
LINE Normal -64 36 -64 16
LINE Normal -64 -8 -52 16
LINE Normal -100 -96 -84 -96
LINE Normal -84 -104 -84 -88
LINE Normal -84 -104 -64 -96
LINE Normal -84 -88 -64 -96
LINE Normal -60 -96 -40 -96 1
LINE Normal -40 -96 -40 4 1
LINE Normal -40 4 -56 4 1
LINE Normal -12 -16 -52 -16
LINE Normal -52 -16 -52 4
LINE Normal -52 48 -12 48
LINE Normal -52 48 -52 28
LINE Normal -52 4 -64 28
LINE Normal -16 -84 -32 -84
LINE Normal -32 -92 -32 -76
LINE Normal -32 -92 -52 -84
LINE Normal -32 -76 -52 -84
LINE Normal -56 -84 -76 -84 1
LINE Normal -76 -84 -76 16 1
LINE Normal -76 16 -60 16 1
RECTANGLE Normal -144 -128 144 384
CIRCLE Normal -64 -98 -60 -94
CIRCLE Normal -52 -86 -56 -82
ARC Normal -20 -124 4 -100 -20 -112 -8 -100
ARC Normal -4 -124 20 -100 8 -100 20 -112
TEXT -4 132 Center 2 ADG441
WINDOW 0 0 -144 Center 2
WINDOW 3 0 400 Center 2
SYMATTR Prefix X
SYMATTR Description ADG441 MOS QUAD SPST Switches.
PIN -144 -96 LEFT 8
PINATTR PinName IN1
PINATTR SpiceOrder 1
PIN -144 -32 LEFT 8
PINATTR PinName D1
PINATTR SpiceOrder 2
PIN -144 32 LEFT 8
PINATTR PinName S1
PINATTR SpiceOrder 3
PIN -144 96 LEFT 8
PINATTR PinName VSS
PINATTR SpiceOrder 4
PIN -144 160 LEFT 8
PINATTR PinName GND
PINATTR SpiceOrder 5
PIN -144 224 LEFT 8
PINATTR PinName S4
PINATTR SpiceOrder 6
PIN -144 288 LEFT 8
PINATTR PinName D4
PINATTR SpiceOrder 7
PIN -144 352 LEFT 8
PINATTR PinName IN4
PINATTR SpiceOrder 8
PIN 144 352 RIGHT 8
PINATTR PinName IN3
PINATTR SpiceOrder 9
PIN 144 288 RIGHT 8
PINATTR PinName D3
PINATTR SpiceOrder 10
PIN 144 224 RIGHT 8
PINATTR PinName S3
PINATTR SpiceOrder 11
PIN 144 160 RIGHT 8
PINATTR PinName NC
PINATTR SpiceOrder 12
PIN 144 96 RIGHT 8
PINATTR PinName VDD
PINATTR SpiceOrder 13
PIN 144 32 RIGHT 8
PINATTR PinName S2
PINATTR SpiceOrder 14
PIN 144 -32 RIGHT 8
PINATTR PinName D2
PINATTR SpiceOrder 15
PIN 144 -96 RIGHT 8
PINATTR PinName IN2
PINATTR SpiceOrder 16
