Version 4
SymbolType BLOCK
RECTANGLE Normal -64 -48 64 48
PIN -64 0 LEFT 8
PINATTR PinName IN
PINATTR SpiceOrder 1
PIN 64 0 RIGHT 8
PINATTR PinName A
PINATTR SpiceOrder 2
PIN 0 -48 TOP 8
PINATTR PinName VCC
PINATTR SpiceOrder 3
PIN 0 48 BOTTOM 8
PINATTR PinName VEE
PINATTR SpiceOrder 4
