Version 4
SHEET 1 1072 680
WIRE 112 224 48 224
WIRE 48 240 48 224
WIRE 112 272 112 224
WIRE 144 272 112 272
WIRE 304 272 304 240
WIRE 304 272 272 272
WIRE 336 272 304 272
WIRE 528 272 464 272
WIRE 688 272 688 240
WIRE 688 272 656 272
WIRE 720 272 688 272
WIRE 896 272 848 272
WIRE 48 320 48 304
FLAG 48 320 0
FLAG 304 240 A
IOPIN 304 240 BiDir
FLAG 688 240 B
IOPIN 688 240 BiDir
FLAG 896 272 VOLTMETER
IOPIN 896 272 Out
SYMBOL Boltz-0-power -96 272 R0
WINDOW 0 0 12 Bottom 2
SYMATTR InstName Power
SYMBOL res2 32 240 R0
SYMATTR InstName R
SYMATTR Value 1MEG
SYMBOL Boltz-1-preamp 208 272 R0
SYMATTR InstName Pre-amp
SYMBOL Boltz-2-bandpass 400 272 R0
SYMATTR InstName Bandpass
SYMBOL Boltz-3-postamp 592 272 R0
SYMATTR InstName Post-amp
SYMBOL Boltz-4-rms 784 272 R0
SYMATTR InstName RMS
TEXT 240 448 Left 2 !.include ad708.cir\n.op
