Version 4
SHEET 1 884 680
WIRE 592 256 544 256
WIRE 704 256 656 256
WIRE 176 288 48 288
WIRE 144 320 96 320
WIRE 176 320 176 288
WIRE 192 320 176 320
WIRE 96 336 96 320
WIRE 144 352 144 320
WIRE 192 352 144 352
WIRE 432 368 368 368
WIRE 544 368 544 256
WIRE 544 368 496 368
WIRE 576 368 544 368
WIRE 192 384 144 384
WIRE 704 384 704 256
WIRE 704 384 640 384
WIRE 736 384 704 384
WIRE 576 400 544 400
WIRE 96 416 96 400
WIRE 144 416 144 384
WIRE 144 416 96 416
WIRE 192 416 176 416
WIRE 176 464 176 416
WIRE 336 464 336 400
WIRE 544 464 544 400
WIRE 464 560 448 560
WIRE 464 592 448 592
FLAG 176 464 0
FLAG 336 464 0
FLAG 544 464 0
FLAG 736 384 OUT
IOPIN 736 384 Out
FLAG 48 288 IN
IOPIN 48 288 In
FLAG 464 560 VCC
FLAG 608 352 VCC
FLAG 288 320 VCC
FLAG 288 416 VEE
FLAG 608 416 VEE
FLAG 464 592 VEE
FLAG 448 560 $G_VCC
FLAG 448 592 $G_VEE
SYMBOL Opamps/UniversalOpamp2 608 384 R0
WINDOW 0 28 -36 Left 2
WINDOW 38 20 39 Left 2
SYMATTR InstName X2
SYMATTR SpiceModel AD708
SYMATTR Value AD708
SYMBOL res2 496 352 R90
WINDOW 0 0 32 VBottom 2
WINDOW 3 32 32 VTop 2
SYMATTR InstName R2
SYMATTR Value 4.7K
SYMBOL res2 80 336 R0
WINDOW 0 -30 17 Left 2
WINDOW 3 -33 52 Left 2
SYMATTR InstName R1
SYMATTR Value 1K
SYMBOL res2 656 240 R90
WINDOW 0 0 32 VBottom 2
WINDOW 3 32 32 VTop 2
SYMATTR InstName R3
SYMATTR Value 68K
SYMBOL INA114-OPAMP 320 368 R0
SYMATTR InstName X1
TEXT 568 584 Left 2 !.include AD708.cir\n.op
