Version 4
SHEET 1 880 680
WIRE 512 416 416 416
WIRE 288 576 288 512
WIRE 512 576 512 416
WIRE 512 576 288 576
FLAG 160 288 Rg1
FLAG 160 352 In-
FLAG 160 416 In+
FLAG 160 480 V-
FLAG 416 352 V+
FLAG 416 288 Rg2
FLAG 512 416 Out
FLAG 416 480 Ref
SYMBOL INA114 288 384 R0
SYMATTR InstName U1
